/*--------------------------------*- C++ -*----------------------------------*\
  =========                 |
  \\      /  F ield         | OpenFOAM: The Open Source CFD Toolbox
   \\    /   O peration     | Website:  https://openfoam.org
    \\  /    A nd           | Version:  11
     \\/     M anipulation  |
\*---------------------------------------------------------------------------*/
FoamFile
{
    format      ascii;
    class       volScalarField;
    location    "1";
    object      k;
}
// * * * * * * * * * * * * * * * * * * * * * * * * * * * * * * * * * * * * * //

dimensions      [0 2 -2 0 0 0 0];

internalField   uniform 0;

boundaryField
{
    bottomWall
    {
//         type           kqRWallFunction;
        type           kLowReWallFunction ;
        value          $internalField;
    }
    topWall
    {
//         type           kqRWallFunction;
        type           kLowReWallFunction ;
        value          $internalField;
    }
    sides1_half0
    {
        type            cyclic;
    }
    sides2_half0
    {
        type            cyclic;
    }
    inout1_half0
    {
        type            cyclic;
//         type            fixedValue;
//         value           uniform 0.375;
    }
    inout2_half0
    {
        type            cyclic;
//         type            fixedValue;
//         value           uniform 0.375;
    }
    sides2_half1
    {
        type            cyclic;
    }
    sides1_half1
    {
        type            cyclic;
    }
    inout1_half1
    {
        type            cyclic;
//         type            zeroGradient;
    }
    inout2_half1
    {
        type            cyclic;
//         type            zeroGradient;
    }
}


// ************************************************************************* //
