/*--------------------------------*- C++ -*----------------------------------*\
  =========                 |
  \\      /  F ield         | OpenFOAM: The Open Source CFD Toolbox
   \\    /   O peration     | Website:  https://openfoam.org
    \\  /    A nd           | Version:  11
     \\/     M anipulation  |
\*---------------------------------------------------------------------------*/
FoamFile
{
    format      ascii;
    class       dictionary;
    object      blockMeshDict;
}
// * * * * * * * * * * * * * * * * * * * * * * * * * * * * * * * * * * * * * //

scale   0.0127;

vertices
(
    (  -50   1   1) // 1 -> 0
    (    0   1   1) // 2
    (    0   0   1) // 3
    (    8   0   1) // 4
    (   50   0   1) // 5
    (    8   1   1) // 6
    (   50 3.125 1) // 7
    (   50   9   1) // 8
    (    8   9   1) // 9
    (    0   9   1) // 10
    (  -50   9   1) // 11

    (  -50   1   0) // 14 -> 11
    (    0   1   0) // 15
    (    0   0   0) // 16
    (    8   0   0) // 17
    (   50   0   0) // 18
    (    8   1   0) // 19
    (   50 3.125 0) // 20
    (   50   9   0) // 21
    (    8   9   0) // 22
    (    0   9   0) // 23
    (  -50   9   0) // 24
);


ySpacing ( (0.3 0.47 250) (0.2 0.06 1) (0.3 0.47 0.004) );
ySpacing2 ( (0.75 0.3 1) (0.25 0.7 0.004) );
yWall ( (0.5 0.5 100) (0.5 0.5 0.03) );

yLower1 ( (0.4 0.7 50) (0.6 0.3 1) );
yLower2 ( (1 1 50) );

// yUpper1 ( (0.1 0.15 2) (0.75 0.35 4) (0.25 0.5 0.005) );
yUpper1 ( (0.1 0.2 2) (0.75 0.35 5) (0.25 0.45 0.005) );

blocks
(
    // Block 1
    hex (11 12 20 21 0 1 9 10)
    (88 65 1)
    simpleGrading (1 1 1)
    // simpleGrading (((106 63 0.1)(4 25 0.3)) $ySpacing 1)

   // Block 2
   hex (13 14 16 12 2 3 5 1)
   (97 48 1)
   simpleGrading (1 1 1)
   // simpleGrading (1 $ySpacing 1)
   // edgeGrading (1 1 1 1   $yWall  $yLower1 $yLower1 $yWall  1 1 1 1)

   // Block 3
   hex (14 15 17 16 3 4 6 5)
   (33 48 1)
   simpleGrading (1 1 1)
   // simpleGrading (100 1 1)
   // edgeGrading (80 80 80 80    $yLower1 $yLower2 $yLower2  $yLower1  1 1 1 1)

   // Block 4
   hex (12 16 19 20 1 5 8 9)
   (97 65 1)
   simpleGrading (1 1 1)
   // simpleGrading (1 $ySpacing 1)
   // edgeGrading (1 1 1 1   $ySpacing $yUpper1 $yUpper1 $ySpacing  1 1 1 1)

   // Block 5
   hex (16 17 18 19 5 6 7 8)
   (33 65 1)
   simpleGrading (1 1 1)
   // simpleGrading (100 $ySpacing 1)
   // edgeGrading (80 80 80 80   $yUpper1 $ySpacing2 $ySpacing2 $yUpper1  1 1 1 1)
);

edges
(
);

boundary
(
    inlet
    {
        type patch;
        faces
        (
            (10 0 11 21)
        );
    }
    outlet
    {
        type patch;
        faces
        (
            (15 17 6 4)
            (17 18 7 6)
        );
    }
    upperWall
    {
        type wall;
        faces
        (
            (21 10 9 20)
            (20 9 8 19)
            (19 8 7 18)
        );
    }
    lowerWall
    {
        type wall;
        faces
        (
            (11 12 1 0)
            (12 1 2 13)
            (13 14 3 2)
            (14 15 4 3)
        );
    }
    front
    {
        type empty;
        faces
        (
            (0 1 9 10)
            (2 3 5 1)
            (3 4 5 6)
            (1 5 9 8)
            (5 6 7 8)
        );
    }
    back
    {
        type empty;
        faces
        (
            (11 12 20 21)
            (13 14 16 12)
            (14 15 17 16)
            (12 16 19 20)
            (16 17 18 19)
        );
    }
);


// ************************************************************************* //
