/*--------------------------------*- C++ -*----------------------------------*\
  =========                 |
  \\      /  F ield         | OpenFOAM: The Open Source CFD Toolbox
   \\    /   O peration     | Website:  https://openfoam.org
    \\  /    A nd           | Version:  11
     \\/     M anipulation  |
\*---------------------------------------------------------------------------*/
FoamFile
{
    format      ascii;
    class       volScalarField;
    location    "1";
    object      omega;
}
// * * * * * * * * * * * * * * * * * * * * * * * * * * * * * * * * * * * * * //

dimensions      [0 0 -1 0 0 0 0];

internalField   uniform 1.0e+5;

boundaryField
{
    bottomWall
    {
        type            omegaWallFunction;
        value           $internalField;
    }
    topWall
    {
        type            omegaWallFunction;
        value           $internalField;
    }
    sides1_half0
    {
        type            empty;
    }
    sides2_half0
    {
        type            empty;
    }
    inout1_half0
    {
        type            cyclic;
    }
    inout2_half0
    {
        type            cyclic;
    }
    sides2_half1
    {
        type            empty;
    }
    sides1_half1
    {
        type            empty;
    }
    inout1_half1
    {
        type            cyclic;
    }
    inout2_half1
    {
        type            cyclic;
    }
}


// ************************************************************************* //
